Version 4
SHEET 1 880 680
WIRE 112 32 -80 32
WIRE 368 32 192 32
WIRE 0 64 -32 64
WIRE -32 80 -32 64
WIRE 576 112 576 48
WIRE 0 160 0 64
WIRE 80 160 0 160
WIRE 288 160 256 160
WIRE -80 192 -80 32
WIRE -80 192 -352 192
WIRE 80 192 -80 192
WIRE 368 192 368 32
WIRE 368 192 256 192
WIRE 576 208 576 192
WIRE 688 208 576 208
WIRE 288 224 256 224
WIRE 368 224 368 192
WIRE 576 224 576 208
WIRE -352 240 -352 192
WIRE 80 256 64 256
WIRE 272 256 256 256
WIRE 288 336 288 224
WIRE -80 352 -80 272
WIRE 272 368 272 256
WIRE 272 368 256 368
WIRE 368 368 368 304
WIRE 576 384 576 304
FLAG 688 208 0
FLAG -352 320 0
FLAG 576 48 VCC
FLAG 576 384 VEE
FLAG 64 256 VCC
FLAG 288 160 VEE
FLAG -80 352 0
FLAG -32 80 0
FLAG 368 368 0
FLAG 256 368 PD
SYMBOL voltage 576 96 R0
SYMATTR InstName V1
SYMATTR Value 20
SYMBOL voltage 576 208 R0
SYMATTR InstName V2
SYMATTR Value 20V
SYMBOL voltage -352 224 R0
WINDOW 123 0 0 Left 2
WINDOW 39 0 0 Left 2
SYMATTR InstName V3
SYMATTR Value SINE(0 0.25 1k)
SYMBOL AutoGenerated\\THS4532 160 208 R0
SYMATTR InstName U2
SYMBOL res -96 176 R0
SYMATTR InstName R1
SYMATTR Value 10k
SYMBOL res 352 208 R0
SYMATTR InstName R3
SYMATTR Value 1k
SYMBOL res 208 16 R90
WINDOW 0 0 56 VBottom 2
WINDOW 3 32 56 VTop 2
SYMATTR InstName R2
SYMATTR Value 10k
TEXT -386 376 Left 2 !.tran 0.01
