Version 4
SHEET 1 880 680
WIRE -272 16 -544 16
WIRE -192 16 -272 16
WIRE -544 80 -544 16
WIRE -272 80 -272 16
WIRE -544 96 -544 80
WIRE -656 128 -688 128
WIRE -384 128 -384 112
WIRE -384 128 -448 128
WIRE -320 128 -384 128
WIRE -176 128 -224 128
WIRE -656 144 -656 128
WIRE -640 144 -656 144
WIRE -272 208 -272 176
WIRE -640 224 -672 224
WIRE -400 224 -448 224
WIRE -544 272 -544 256
FLAG -272 208 grnd
FLAG -544 272 -9
IOPIN -544 272 In
FLAG -640 176 +9
IOPIN -640 176 In
FLAG -688 128 grnd
IOPIN -688 128 In
FLAG -400 224 i-
IOPIN -400 224 In
FLAG -672 224 i+
IOPIN -672 224 In
FLAG -176 128 o
IOPIN -176 128 Out
FLAG -384 112 comp
IOPIN -384 112 In
FLAG -192 16 +vcc
IOPIN -192 16 In
SYMBOL ss-vas-pnp -272 128 R0
SYMATTR InstName X1
SYMBOL ss-par-npn -544 160 R0
SYMATTR InstName X2
SYMATTR SpiceLine rc=2.4k
