Version 4
SHEET 1 5420 680
WIRE 2896 -1552 2896 -1568
WIRE 2672 -1488 2672 -1504
WIRE 2896 -1440 2896 -1472
WIRE 2672 -1392 2672 -1408
WIRE 2672 -1392 2624 -1392
WIRE 2672 -1376 2672 -1392
WIRE 2896 -1344 2896 -1360
WIRE 2896 -1344 2848 -1344
WIRE 2896 -1328 2896 -1344
WIRE 1920 -1312 624 -1312
WIRE 2112 -1312 1920 -1312
WIRE 2160 -1312 2112 -1312
WIRE 2112 -1296 2112 -1312
WIRE 1920 -1280 1920 -1312
WIRE 624 -1248 624 -1312
WIRE 624 -1232 624 -1248
WIRE 2112 -1232 2112 -1248
WIRE 2896 -1216 2896 -1248
WIRE 512 -1200 480 -1200
WIRE 832 -1200 720 -1200
WIRE 1680 -1200 832 -1200
WIRE 1744 -1200 1680 -1200
WIRE 1824 -1200 1808 -1200
WIRE 2112 -1200 2112 -1232
WIRE 512 -1184 512 -1200
WIRE 528 -1184 512 -1184
WIRE 736 -1152 704 -1152
WIRE 832 -1152 832 -1200
WIRE 832 -1152 800 -1152
WIRE 528 -1104 368 -1104
WIRE 944 -1104 720 -1104
WIRE 1168 -1088 1136 -1088
WIRE 1312 -1088 1248 -1088
WIRE 1920 -1072 1920 -1120
WIRE 1936 -1072 1920 -1072
WIRE 2000 -1072 1936 -1072
WIRE 2096 -1072 2064 -1072
WIRE 2128 -1072 2096 -1072
WIRE 2144 -1072 2128 -1072
WIRE 624 -1056 624 -1072
WIRE 368 -1040 368 -1104
WIRE 368 -1040 304 -1040
WIRE 1136 -1040 1136 -1088
WIRE 1136 -1040 1056 -1040
WIRE 2128 -1040 2128 -1072
WIRE 1056 -1008 1056 -1040
WIRE 1680 -960 1680 -1200
WIRE 2128 -944 2128 -976
WIRE 1056 -912 1056 -944
WIRE 1136 -912 1136 -960
WIRE 1136 -912 1056 -912
WIRE 1920 -896 1920 -1072
WIRE 304 -864 304 -1040
WIRE 304 -864 272 -864
WIRE 944 -864 944 -1104
WIRE 1040 -864 944 -864
WIRE 1136 -864 1136 -912
WIRE 1136 -864 1040 -864
WIRE 1680 -864 1680 -896
WIRE 1824 -864 1680 -864
WIRE 304 -832 304 -864
WIRE 1040 -832 1040 -864
WIRE 1136 -832 1136 -864
WIRE 2080 -816 1984 -816
WIRE 2224 -816 2080 -816
WIRE 1824 -768 1680 -768
WIRE 2080 -768 2080 -816
WIRE 2144 -768 2080 -768
WIRE 1680 -752 1680 -768
WIRE 1136 -736 1136 -752
WIRE 304 -720 304 -752
WIRE 624 -688 624 -720
WIRE 624 -672 624 -688
WIRE 1136 -656 1136 -672
WIRE 2128 -656 2128 -672
WIRE 848 -640 720 -640
WIRE 528 -624 480 -624
WIRE 304 -608 304 -640
WIRE 528 -592 496 -592
WIRE 736 -592 704 -592
WIRE 848 -592 848 -640
WIRE 848 -592 800 -592
WIRE 1024 -592 848 -592
WIRE 1680 -576 1680 -688
WIRE 1920 -560 1920 -736
WIRE 1984 -560 1920 -560
WIRE 2080 -560 2048 -560
WIRE 2128 -560 2128 -592
WIRE 2128 -560 2080 -560
WIRE 2160 -560 2128 -560
WIRE 368 -544 368 -1040
WIRE 528 -544 368 -544
WIRE 944 -544 944 -864
WIRE 944 -544 720 -544
WIRE 1920 -544 1920 -560
WIRE 1024 -464 1024 -592
WIRE 1680 -464 1680 -576
WIRE 1680 -464 1024 -464
WIRE 1744 -464 1680 -464
WIRE 1824 -464 1808 -464
WIRE 2128 -448 2128 -464
WIRE 624 -368 624 -512
WIRE 1920 -368 1920 -384
WIRE 1920 -368 624 -368
WIRE 2128 -368 2128 -384
WIRE 2128 -368 1920 -368
WIRE 2176 -368 2128 -368
FLAG 2176 -368 -50
IOPIN 2176 -368 In
FLAG 2160 -560 -15
IOPIN 2160 -560 In
FLAG 2160 -1312 +50
IOPIN 2160 -1312 In
FLAG 2144 -1072 +15
IOPIN 2144 -1072 In
FLAG 1312 -1088 realim
FLAG 2144 -768 Realim
FLAG 208 -864 i
IOPIN 208 -864 In
FLAG 304 -608 grnd
IOPIN 304 -608 In
FLAG 2224 -816 o
IOPIN 2224 -816 Out
FLAG 1136 -656 grnd
FLAG 2128 -672 grnd
FLAG 2128 -944 grnd
FLAG 2112 -1200 grnd
FLAG 2128 -464 grnd
FLAG 1040 -832 i_aux
IOPIN 1040 -832 In
FLAG 624 -720 +9
FLAG 496 -592 -9
FLAG 624 -1056 -9
FLAG 528 -1152 +9
FLAG 2672 -1504 +15
IOPIN 2672 -1504 In
FLAG 2672 -1216 grnd
IOPIN 2672 -1216 In
FLAG 2624 -1392 +9
FLAG 2896 -1568 grnd
IOPIN 2896 -1568 In
FLAG 2848 -1344 -9
FLAG 2896 -1216 -15
IOPIN 2896 -1216 In
FLAG 480 -1200 grnd
FLAG 480 -624 grnd
DATAFLAG 1680 -576 "round($*100)/100"
DATAFLAG 2080 -816 "round($*10k)/10k"
DATAFLAG 2080 -560 "round($*100)/100"
DATAFLAG 2096 -1072 "round($*100)/100"
DATAFLAG 2096 -1072 "round($*100)/100"
DATAFLAG 2672 -1392 "round($*100)/100"
DATAFLAG 2896 -1344 "round($*100)/100"
DATAFLAG 1936 -1072 "round($*100)/100"
DATAFLAG 1936 -1072 "round($*100)/100"
SYMBOL diode 1744 -1184 R270
WINDOW 0 32 32 VTop 2
WINDOW 3 0 32 VBottom 2
SYMATTR InstName D10
SYMATTR Value D1N4148
SYMBOL zener 1696 -896 R180
WINDOW 0 24 64 Left 2
WINDOW 3 24 0 Left 2
SYMATTR InstName D8
SYMATTR Value D1N746
SYMBOL zener 1696 -688 R180
WINDOW 0 24 64 Left 2
WINDOW 3 24 0 Left 2
SYMATTR InstName D9
SYMATTR Value D1N746
SYMBOL diode 1808 -480 R90
WINDOW 0 0 32 VBottom 2
WINDOW 3 32 32 VTop 2
SYMATTR InstName D11
SYMATTR Value D1N4148
SYMBOL res 1120 -848 R0
SYMATTR InstName R15
SYMATTR Value 366R
SYMBOL res 1120 -1056 R0
SYMATTR InstName R_real_1
SYMATTR Value 10k
SYMBOL res 288 -736 R0
SYMATTR InstName Rin
SYMATTR Value 10k
SYMBOL cap 1120 -736 R0
SYMATTR InstName CR1
SYMATTR Value 1m
SYMBOL cap 272 -880 R90
WINDOW 0 0 32 VBottom 2
WINDOW 3 32 32 VTop 2
SYMATTR InstName C1
SYMATTR Value 47u
SYMBOL cap 2112 -448 R0
SYMATTR InstName C14
SYMATTR Value 220u
SYMBOL cap 2112 -1040 R0
SYMATTR InstName C16
SYMATTR Value 220u
SYMBOL cap 2112 -656 R0
SYMATTR InstName C17
SYMATTR Value 220u
SYMBOL cap 2096 -1296 R0
SYMATTR InstName C13
SYMATTR Value 220u
SYMBOL cap 1072 -944 R180
WINDOW 0 55 185 VLeft 2
WINDOW 3 24 8 Left 2
SYMATTR InstName C_comp_real
SYMATTR Value 2p
SYMBOL ss-trans-out-npn 1904 -1200 R0
SYMATTR InstName X4
SYMBOL ss-trans-out-pnp 1904 -464 R0
SYMATTR InstName X5
SYMBOL ss-inner-out 1920 -816 R0
SYMATTR InstName X6
SYMBOL rui\\shortcuts\\voltage 2672 -1312 R0
WINDOW 123 0 0 Left 2
WINDOW 39 0 0 Left 2
SYMATTR InstName V1
SYMATTR Value 8
SYMBOL res 2656 -1392 R0
SYMATTR InstName R1
SYMATTR Value 10
SYMBOL res 2656 -1504 R0
SYMATTR InstName R2
SYMATTR Value 60
SYMBOL rui\\shortcuts\\voltage 2896 -1568 R0
WINDOW 123 0 0 Left 2
WINDOW 39 0 0 Left 2
SYMATTR InstName V2
SYMATTR Value 8
SYMBOL res 2880 -1456 R0
SYMATTR InstName R3
SYMATTR Value 10
SYMBOL res 2880 -1344 R0
SYMATTR InstName R4
SYMATTR Value 60
SYMBOL ss-12+ 624 -1168 R0
SYMATTR InstName X2
SYMBOL ss-12- 624 -608 R0
SYMATTR InstName X3
SYMBOL rui\\shortcuts\\voltage 304 -848 R0
WINDOW 123 0 0 Left 2
WINDOW 39 0 0 Left 2
SYMATTR InstName V3
SYMATTR Value {offset}
SYMBOL rui\\shortcuts\\voltage 1264 -1088 R90
WINDOW 0 -32 56 VBottom 2
WINDOW 3 32 56 VTop 2
WINDOW 123 0 0 Left 2
WINDOW 39 0 0 Left 2
SYMATTR InstName V4
SYMATTR Value {offset*28.2843}
SYMBOL diode 2064 -1056 M270
WINDOW 0 32 32 VTop 2
WINDOW 3 0 32 VBottom 2
SYMATTR InstName D1
SYMATTR Value MBR1645
SYMBOL diode 1984 -544 R270
WINDOW 0 32 32 VTop 2
WINDOW 3 0 32 VBottom 2
SYMATTR InstName D2
SYMATTR Value MBR1645
SYMBOL cap 800 -608 R90
WINDOW 0 0 32 VBottom 2
WINDOW 3 32 32 VTop 2
SYMATTR InstName C4
SYMATTR Value 40p
SYMBOL cap 800 -1168 R90
WINDOW 0 0 32 VBottom 2
WINDOW 3 32 32 VTop 2
SYMATTR InstName C5
SYMATTR Value 40p
TEXT 136 -336 Left 2 !.lib models.mod
TEXT 2560 -1648 Left 4 ;Reguladores
TEXT 2544 -1152 Left 2 ;prov
RECTANGLE Normal 3008 -1136 2528 -1680 2
