Version 4
SHEET 1 5420 680
WIRE 1920 -1392 1456 -1392
WIRE 2112 -1392 1920 -1392
WIRE 2160 -1392 2112 -1392
WIRE 2112 -1376 2112 -1392
WIRE 1920 -1360 1920 -1392
WIRE 1456 -1328 1456 -1392
WIRE 2112 -1312 2112 -1328
WIRE 1408 -1280 1296 -1280
WIRE 1680 -1280 1504 -1280
WIRE 1744 -1280 1680 -1280
WIRE 1824 -1280 1808 -1280
WIRE 2112 -1280 2112 -1312
WIRE 1456 -1200 1456 -1232
WIRE 1296 -1104 1296 -1280
WIRE 1488 -1104 1296 -1104
WIRE 1680 -1104 1680 -1280
WIRE 1680 -1104 1552 -1104
WIRE 1920 -1072 1920 -1200
WIRE 2096 -1072 1920 -1072
WIRE 2128 -1072 2096 -1072
WIRE 2144 -1072 2128 -1072
WIRE 2128 -1040 2128 -1072
WIRE 1680 -1024 1680 -1104
WIRE 1232 -960 1056 -960
WIRE 1296 -960 1296 -1104
WIRE 1296 -960 1232 -960
WIRE 2128 -944 2128 -976
WIRE 864 -928 784 -928
WIRE 1232 -928 1056 -928
WIRE 1296 -928 1232 -928
WIRE 1920 -896 1920 -1072
WIRE 720 -864 688 -864
WIRE 864 -864 720 -864
WIRE 1088 -864 1056 -864
WIRE 1120 -864 1088 -864
WIRE 1232 -864 1200 -864
WIRE 1680 -864 1680 -960
WIRE 1824 -864 1680 -864
WIRE 928 -816 928 -832
WIRE 976 -816 976 -832
WIRE 2080 -816 1984 -816
WIRE 2224 -816 2080 -816
WIRE 1088 -768 1088 -864
WIRE 1168 -768 1088 -768
WIRE 1824 -768 1680 -768
WIRE 2080 -768 2080 -816
WIRE 2144 -768 2080 -768
WIRE 976 -752 1056 -864
WIRE 1168 -736 1168 -768
WIRE 1232 -736 1232 -864
WIRE 720 -720 720 -864
WIRE 1088 -720 1088 -768
WIRE 1680 -704 1680 -768
WIRE 2128 -656 2128 -672
WIRE 1168 -640 1168 -672
WIRE 1168 -640 1088 -640
WIRE 1088 -624 1088 -640
WIRE 1232 -624 1232 -672
WIRE 720 -608 720 -640
WIRE 720 -608 624 -608
WIRE 1296 -576 1296 -928
WIRE 1472 -576 1296 -576
WIRE 1680 -576 1680 -640
WIRE 1680 -576 1536 -576
WIRE 1920 -560 1920 -736
WIRE 2080 -560 1920 -560
WIRE 2128 -560 2128 -592
WIRE 2128 -560 2080 -560
WIRE 2160 -560 2128 -560
WIRE 1680 -480 1680 -576
WIRE 1920 -448 1920 -560
WIRE 1488 -416 1488 -448
WIRE 1296 -368 1296 -576
WIRE 1440 -368 1296 -368
WIRE 1536 -368 1520 -368
WIRE 1680 -368 1680 -480
WIRE 1680 -368 1536 -368
WIRE 1744 -368 1680 -368
WIRE 1824 -368 1808 -368
WIRE 2128 -352 2128 -368
WIRE 1488 -272 1488 -320
WIRE 1920 -272 1920 -288
WIRE 1920 -272 1488 -272
WIRE 2128 -272 2128 -288
WIRE 2128 -272 1920 -272
WIRE 2176 -272 2128 -272
FLAG 2176 -272 -50
IOPIN 2176 -272 In
FLAG 2160 -560 -15
IOPIN 2160 -560 In
FLAG 2160 -1392 +50
IOPIN 2160 -1392 In
FLAG 2144 -1072 +15
IOPIN 2144 -1072 In
FLAG 1088 -624 realim
FLAG 2144 -768 Realim
FLAG 624 -864 i
IOPIN 624 -864 In
FLAG 624 -608 grnd
IOPIN 624 -608 In
FLAG 2224 -816 o
IOPIN 2224 -816 Out
FLAG 1232 -624 grnd
FLAG 2128 -672 grnd
FLAG 2128 -944 grnd
FLAG 2112 -1280 grnd
FLAG 2128 -368 grnd
FLAG 784 -928 grnd
FLAG 976 -1008 +50
FLAG 976 -816 -50
FLAG 928 -1008 +15
FLAG 928 -816 -15
FLAG 976 -752 i_aux
IOPIN 976 -752 In
FLAG 1456 -1200 grnd
FLAG 1488 -448 grnd
DATAFLAG 1232 -960 "round($*100)/100"
DATAFLAG 1232 -928 "round($*100)/100"
DATAFLAG 1680 -480 "round($*100)/100"
DATAFLAG 2080 -816 "round($*10k)/10k"
DATAFLAG 1920 -1280 "round($*100)/100"
DATAFLAG 2080 -560 "round($*100)/100"
DATAFLAG 2096 -1072 "round($*100)/100"
DATAFLAG 1920 -1280 "round($*100)/100"
DATAFLAG 2096 -1072 "round($*100)/100"
SYMBOL diode 1744 -1264 R270
WINDOW 0 32 32 VTop 2
WINDOW 3 0 32 VBottom 2
SYMATTR InstName D10
SYMATTR Value D1N4148
SYMBOL zener 1696 -960 R180
WINDOW 0 24 64 Left 2
WINDOW 3 24 0 Left 2
SYMATTR InstName D8
SYMATTR Value D1N746
SYMBOL zener 1696 -640 R180
WINDOW 0 24 64 Left 2
WINDOW 3 24 0 Left 2
SYMATTR InstName D9
SYMATTR Value D1N746
SYMBOL diode 1808 -384 R90
WINDOW 0 0 32 VBottom 2
WINDOW 3 32 32 VTop 2
SYMATTR InstName D11
SYMATTR Value D1N4148
SYMBOL res 1104 -848 R270
WINDOW 0 32 56 VTop 2
WINDOW 3 0 56 VBottom 2
SYMATTR InstName R15
SYMATTR Value 366R
SYMBOL res 1104 -624 R180
WINDOW 0 36 76 Left 2
WINDOW 3 36 40 Left 2
SYMATTR InstName R_real_1
SYMATTR Value 10k
SYMBOL res 704 -736 R0
SYMATTR InstName Rin
SYMATTR Value 10k
SYMBOL cap 1216 -736 R0
SYMATTR InstName CR1
SYMATTR Value 1m
SYMBOL cap 688 -880 R90
WINDOW 0 0 32 VBottom 2
WINDOW 3 32 32 VTop 2
SYMATTR InstName C1
SYMATTR Value 47u
SYMBOL cap 1536 -592 R90
WINDOW 0 0 32 VBottom 2
WINDOW 3 32 32 VTop 2
SYMATTR InstName C_comp_1-
SYMATTR Value 40p
SYMBOL cap 2112 -352 R0
SYMATTR InstName C14
SYMATTR Value 220u
SYMBOL cap 2112 -1040 R0
SYMATTR InstName C16
SYMATTR Value 220u
SYMBOL cap 2112 -656 R0
SYMATTR InstName C17
SYMATTR Value 220u
SYMBOL cap 2096 -1376 R0
SYMATTR InstName C13
SYMATTR Value 220u
SYMBOL cap 1552 -1120 R90
WINDOW 0 0 32 VBottom 2
WINDOW 3 32 32 VTop 2
SYMATTR InstName C_comp_1+
SYMATTR Value 40p
SYMBOL ss-doble-par 960 -928 R0
SYMATTR InstName X2
SYMATTR SpiceLine rcs=2.4k
SYMBOL cap 1152 -736 R0
SYMATTR InstName C_comp_real
SYMATTR Value 4p
SYMBOL ss-vas-npn 1488 -368 R0
SYMATTR InstName X1
SYMBOL ss-vas-pnp 1456 -1280 R0
SYMATTR InstName X3
SYMBOL ss-trans-out-npn 1904 -1280 R0
SYMATTR InstName X4
SYMBOL ss-trans-out-pnp 1904 -368 R0
SYMATTR InstName X5
SYMBOL ss-inner-out 1920 -816 R0
SYMATTR InstName X6
TEXT 600 -384 Left 2 !.lib models.mod
