Version 4
SHEET 1 5420 680
WIRE 1872 -1584 1472 -1584
WIRE 1920 -1584 1872 -1584
WIRE 1872 -1568 1872 -1584
WIRE 1472 -1504 1472 -1584
WIRE 1872 -1504 1872 -1520
WIRE 1872 -1472 1872 -1504
WIRE 1424 -1456 1296 -1456
WIRE 1680 -1456 1520 -1456
WIRE 1472 -1360 1472 -1408
WIRE 1296 -1280 1296 -1456
WIRE 1296 -1136 1296 -1280
WIRE 1504 -1136 1296 -1136
WIRE 1680 -1136 1680 -1456
WIRE 1680 -1136 1568 -1136
WIRE 1680 -1088 1680 -1136
WIRE 1680 -992 1680 -1024
WIRE 1296 -960 1296 -1136
WIRE 1296 -960 1056 -960
WIRE 864 -928 784 -928
WIRE 1296 -928 1056 -928
WIRE 720 -864 688 -864
WIRE 864 -864 720 -864
WIRE 1088 -864 1056 -864
WIRE 1120 -864 1088 -864
WIRE 1232 -864 1200 -864
WIRE 928 -816 928 -832
WIRE 976 -816 976 -832
WIRE 1088 -768 1088 -864
WIRE 1168 -768 1088 -768
WIRE 976 -752 1056 -864
WIRE 1168 -736 1168 -768
WIRE 1232 -736 1232 -864
WIRE 1952 -736 1792 -736
WIRE 1984 -736 1952 -736
WIRE 720 -720 720 -864
WIRE 1088 -720 1088 -768
WIRE 1792 -720 1792 -736
WIRE 1680 -704 1680 -992
WIRE 1744 -704 1680 -704
WIRE 1168 -640 1168 -672
WIRE 1168 -640 1088 -640
WIRE 1088 -624 1088 -640
WIRE 1232 -624 1232 -672
WIRE 1744 -624 1744 -656
WIRE 1792 -624 1792 -640
WIRE 1792 -624 1744 -624
WIRE 720 -608 720 -640
WIRE 720 -608 624 -608
WIRE 1792 -592 1792 -624
WIRE 1680 -544 1680 -704
WIRE 1680 -512 1680 -544
WIRE 1296 -400 1296 -928
WIRE 1504 -400 1296 -400
WIRE 1680 -400 1680 -448
WIRE 1680 -400 1568 -400
WIRE 1296 -352 1296 -400
WIRE 1488 -192 1488 -224
WIRE 1296 -144 1296 -352
WIRE 1440 -144 1296 -144
WIRE 1680 -144 1680 -400
WIRE 1680 -144 1536 -144
WIRE 1856 -32 1856 -48
WIRE 1488 48 1488 -96
WIRE 1856 48 1856 32
WIRE 1856 48 1488 48
WIRE 1904 48 1856 48
FLAG 1904 48 -50
IOPIN 1904 48 In
FLAG 1920 -1584 +50
IOPIN 1920 -1584 In
FLAG 1088 -624 realim
FLAG 624 -864 i
IOPIN 624 -864 In
FLAG 624 -608 grnd
IOPIN 624 -608 In
FLAG 1232 -624 grnd
FLAG 1872 -1472 grnd
FLAG 1856 -48 grnd
FLAG 784 -928 grnd
FLAG 976 -1008 +50
FLAG 976 -816 -50
FLAG 928 -1008 +15
FLAG 928 -816 -15
FLAG 976 -752 i_aux
IOPIN 976 -752 In
FLAG 1472 -1360 grnd
FLAG 1488 -224 grnd
FLAG 1952 -736 realim
FLAG 1984 -736 o
IOPIN 1984 -736 Out
FLAG 1792 -592 0
DATAFLAG 1296 -1280 "round($*100)/100"
DATAFLAG 1296 -352 "round($*100)/100"
DATAFLAG 1680 -544 "round($*100)/100"
DATAFLAG 1680 -992 "round($*100)/100"
DATAFLAG 1680 -544 "round(Ix(ampli:mvbe:+MVBE)*10k)/10k"
SYMBOL zener 1696 -1024 R180
WINDOW 0 24 64 Left 2
WINDOW 3 24 0 Left 2
SYMATTR InstName D8
SYMATTR Value D1N746
SYMBOL zener 1696 -448 R180
WINDOW 0 24 64 Left 2
WINDOW 3 24 0 Left 2
SYMATTR InstName D9
SYMATTR Value D1N746
SYMBOL res 1104 -848 R270
WINDOW 0 32 56 VTop 2
WINDOW 3 0 56 VBottom 2
SYMATTR InstName R15
SYMATTR Value 366R
SYMBOL res 1104 -624 R180
WINDOW 0 36 76 Left 2
WINDOW 3 36 40 Left 2
SYMATTR InstName R_real_1
SYMATTR Value 10k
SYMBOL res 704 -736 R0
SYMATTR InstName Rin
SYMATTR Value 10k
SYMBOL cap 1216 -736 R0
SYMATTR InstName CR1
SYMATTR Value 1m
SYMBOL cap 688 -880 R90
WINDOW 0 0 32 VBottom 2
WINDOW 3 32 32 VTop 2
SYMATTR InstName C1
SYMATTR Value 47u
SYMBOL cap 1568 -416 R90
WINDOW 0 0 32 VBottom 2
WINDOW 3 32 32 VTop 2
SYMATTR InstName C_comp_1-
SYMATTR Value 40p
SYMBOL cap 1840 -32 R0
SYMATTR InstName C14
SYMATTR Value 220u
SYMBOL cap 1856 -1568 R0
SYMATTR InstName C13
SYMATTR Value 220u
SYMBOL cap 1568 -1152 R90
WINDOW 0 0 32 VBottom 2
WINDOW 3 32 32 VTop 2
SYMATTR InstName C_comp_1+
SYMATTR Value 40p
SYMBOL ss-doble-par 960 -928 R0
SYMATTR InstName X2
SYMATTR SpiceLine rcs=2.4k
SYMBOL cap 1152 -736 R0
WINDOW 0 -19 101 VLeft 2
SYMATTR InstName C_comp_real
SYMATTR Value 4p
SYMBOL ss-vas-npn 1488 -144 R0
SYMATTR InstName X1
SYMBOL ss-vas-pnp 1472 -1456 R0
SYMATTR InstName X3
SYMBOL e 1792 -736 R0
SYMATTR InstName E1
SYMATTR Value 1
TEXT 600 -384 Left 2 !.lib models.mod
