Version 4
SHEET 1 940 680
WIRE -608 -352 -608 -368
WIRE -832 -288 -832 -304
WIRE -608 -240 -608 -272
WIRE -832 -192 -832 -208
WIRE -832 -192 -880 -192
WIRE -832 -176 -832 -192
WIRE 128 -160 128 -192
WIRE -608 -144 -608 -160
WIRE -608 -144 -656 -144
WIRE 128 -144 128 -160
WIRE -608 -128 -608 -144
WIRE 16 -112 -16 -112
WIRE 320 -112 224 -112
WIRE 16 -96 16 -112
WIRE 32 -96 16 -96
WIRE -608 -16 -608 -48
WIRE 32 -16 -128 -16
WIRE 448 -16 224 -16
WIRE 128 32 128 16
WIRE -16 96 -16 -112
WIRE -16 96 -48 96
WIRE -128 128 -128 -16
WIRE -128 128 -176 128
WIRE 448 128 448 -16
WIRE 512 128 448 128
WIRE 128 160 128 128
WIRE 128 176 128 160
WIRE 320 208 224 208
WIRE -16 224 -16 96
WIRE 32 224 -16 224
WIRE 32 256 0 256
WIRE -128 304 -128 128
WIRE 32 304 -128 304
WIRE 448 304 448 128
WIRE 448 304 224 304
WIRE 128 368 128 336
FLAG 128 128 +9
FLAG 128 368 -50
IOPIN 128 368 In
FLAG 0 256 -9
FLAG 320 -112 o1
IOPIN 320 -112 Out
FLAG 320 208 o2
IOPIN 320 208 Out
FLAG 128 32 -9
FLAG 128 -192 +50
IOPIN 128 -192 In
FLAG 32 -64 +9
FLAG -176 128 i-
IOPIN -176 128 In
FLAG 512 128 i+
IOPIN 512 128 In
FLAG -48 96 grnd
IOPIN -48 96 In
FLAG -832 -304 +15
IOPIN -832 -304 In
FLAG -832 -16 grnd
IOPIN -832 -16 In
FLAG -880 -192 +9
FLAG -608 -368 grnd
IOPIN -608 -368 In
FLAG -656 -144 -9
FLAG -608 -16 -15
IOPIN -608 -16 In
DATAFLAG -832 -192 "round($*100)/100"
DATAFLAG -608 -144 "round($*100)/100"
SYMBOL ss-par-npn 128 -80 R0
SYMATTR InstName X1
SYMATTR SpiceLine rc={rcs}
SYMBOL ss-par-pnp 128 240 R0
SYMATTR InstName X2
SYMATTR SpiceLine rc={rcs}
SYMBOL rui\\shortcuts\\voltage -832 -112 R0
WINDOW 123 0 0 Left 2
WINDOW 39 0 0 Left 2
SYMATTR InstName V1
SYMATTR Value 8
SYMBOL res -848 -192 R0
SYMATTR InstName R1
SYMATTR Value 10
SYMBOL res -848 -304 R0
SYMATTR InstName R2
SYMATTR Value 60
SYMBOL rui\\shortcuts\\voltage -608 -368 R0
WINDOW 123 0 0 Left 2
WINDOW 39 0 0 Left 2
SYMATTR InstName V2
SYMATTR Value 8
SYMBOL res -624 -256 R0
SYMATTR InstName R3
SYMATTR Value 10
SYMBOL res -624 -144 R0
SYMATTR InstName R4
SYMATTR Value 60
TEXT -944 -448 Left 4 ;Reguladores
TEXT -960 48 Left 2 ;prov
RECTANGLE Normal -496 64 -976 -480 2
