Version 4
SHEET 1 1220 680
WIRE -1040 -192 -1184 -192
WIRE -896 -192 -1040 -192
WIRE -560 -192 -800 -192
WIRE -432 -192 -560 -192
WIRE -288 -192 -352 -192
WIRE -256 -192 -288 -192
WIRE -96 -192 -176 -192
WIRE -1184 -144 -1184 -192
WIRE -96 -144 -96 -192
WIRE -560 -80 -560 -192
WIRE -1184 -32 -1184 -64
WIRE -1040 -16 -1040 -192
WIRE -992 -16 -1040 -16
WIRE -848 -16 -848 -128
WIRE -848 -16 -912 -16
WIRE -608 -16 -848 -16
WIRE -288 -16 -288 -192
WIRE -288 -16 -512 -16
WIRE -96 -16 -96 -64
WIRE -320 96 -464 96
WIRE -176 96 -320 96
WIRE -80 96 -160 96
WIRE 80 96 -80 96
WIRE 208 96 80 96
WIRE 432 96 288 96
WIRE 624 96 432 96
WIRE -464 144 -464 96
WIRE 624 144 624 96
WIRE 80 208 80 96
WIRE -464 256 -464 224
WIRE -320 272 -320 96
WIRE -272 272 -320 272
WIRE -128 272 -128 160
WIRE -128 272 -192 272
WIRE 32 272 -128 272
WIRE 192 272 128 272
WIRE 288 272 256 272
WIRE 432 272 432 96
WIRE 432 272 368 272
WIRE 624 272 624 224
FLAG 624 272 0
FLAG -464 256 0
FLAG -96 -16 0
FLAG -1184 -32 0
SYMBOL npn -176 160 R270
SYMATTR InstName Q1
SYMBOL npn 32 208 M90
SYMATTR InstName Q2
SYMBOL res 304 80 R90
WINDOW 0 0 56 VBottom 2
WINDOW 3 32 56 VTop 2
SYMATTR InstName R1
SYMATTR Value 250
SYMBOL res 608 128 R0
SYMATTR InstName R2
SYMATTR Value 10k
SYMBOL res -176 256 R90
WINDOW 0 0 56 VBottom 2
WINDOW 3 32 56 VTop 2
SYMATTR InstName R3
SYMATTR Value 4k
SYMBOL voltage -464 128 R0
WINDOW 123 0 0 Left 2
WINDOW 39 0 0 Left 2
SYMATTR InstName V1
SYMATTR Value SINE(24 10 2)
SYMBOL res -336 -208 R90
WINDOW 0 0 56 VBottom 2
WINDOW 3 32 56 VTop 2
SYMATTR InstName R4
SYMATTR Value 2
SYMBOL res -112 -160 R0
SYMATTR InstName R5
SYMATTR Value 0.2
SYMBOL res -896 -32 R90
WINDOW 0 0 56 VBottom 2
WINDOW 3 32 56 VTop 2
SYMATTR InstName R6
SYMATTR Value 1k
SYMBOL voltage -1184 -48 R180
WINDOW 123 0 0 Left 2
WINDOW 39 0 0 Left 2
SYMATTR InstName V2
SYMATTR Value SINE(24 4 20)
SYMBOL pnp -608 -80 M90
SYMATTR InstName Q4
SYMBOL pnp -896 -128 R270
SYMATTR InstName Q3
SYMBOL voltage -160 -192 R90
WINDOW 0 -32 56 VBottom 2
WINDOW 3 32 56 VTop 2
WINDOW 123 0 0 Left 2
WINDOW 39 0 0 Left 2
SYMATTR InstName V3
SYMATTR Value 0
SYMBOL LED 192 288 R270
WINDOW 0 72 32 VTop 2
WINDOW 3 0 32 VBottom 2
SYMATTR InstName D1
SYMBOL rui\\shortcuts\\voltage 272 272 R270
WINDOW 0 32 56 VTop 2
WINDOW 3 -32 56 VBottom 2
WINDOW 123 0 0 Left 2
WINDOW 39 0 0 Left 2
SYMATTR InstName V4
SYMATTR Value 1.1
TEXT -1216 40 Left 2 !.tran 1
