Version 4
SHEET 1 1220 680
WIRE -320 96 -464 96
WIRE -176 96 -320 96
WIRE 160 96 -80 96
WIRE 288 96 160 96
WIRE 432 96 368 96
WIRE 624 96 432 96
WIRE -464 144 -464 96
WIRE 624 144 624 96
WIRE 160 208 160 96
WIRE -464 256 -464 224
WIRE -320 272 -320 96
WIRE -272 272 -320 272
WIRE -128 272 -128 160
WIRE -128 272 -192 272
WIRE 112 272 -128 272
WIRE 432 272 432 96
WIRE 432 272 208 272
WIRE 624 272 624 224
FLAG 624 272 0
FLAG -464 256 0
SYMBOL npn -176 160 R270
SYMATTR InstName Q1
SYMBOL npn 112 208 M90
SYMATTR InstName Q2
SYMBOL res 384 80 R90
WINDOW 0 0 56 VBottom 2
WINDOW 3 32 56 VTop 2
SYMATTR InstName R1
SYMATTR Value 1
SYMBOL res 608 128 R0
SYMATTR InstName R2
SYMATTR Value 10
SYMBOL res -176 256 R90
WINDOW 0 0 56 VBottom 2
WINDOW 3 32 56 VTop 2
SYMATTR InstName R3
SYMATTR Value 100
SYMBOL rui\\shortcuts\\voltage -464 128 R0
WINDOW 123 0 0 Left 2
WINDOW 39 0 0 Left 2
SYMATTR InstName V1
SYMATTR Value SINE(10 5 4)
TEXT -498 328 Left 2 !.tran 1
