Version 4
SHEET 1 1132 680
WIRE 1040 -32 1040 -64
WIRE 960 32 960 0
WIRE 400 112 336 112
WIRE 1040 112 1040 48
WIRE 1040 112 960 112
WIRE 1104 112 1040 112
WIRE 400 128 400 112
WIRE 1104 128 1104 112
WIRE 1040 160 1040 112
WIRE 1040 160 976 160
WIRE 976 176 976 160
WIRE 48 192 48 112
WIRE 400 240 400 208
WIRE 1040 240 1040 160
WIRE 48 256 48 208
WIRE 192 256 192 224
WIRE 256 256 256 224
WIRE 976 288 976 256
WIRE 1040 352 1040 320
FLAG 1104 128 0
FLAG 400 240 0
FLAG 1040 -64 +50
FLAG 960 0 +15
FLAG 976 288 -15
FLAG 1040 352 -50
FLAG 192 48 +50
FLAG 256 48 +15
FLAG 192 256 -50
FLAG 256 256 -15
FLAG 48 256 0
SYMBOL voltage 976 160 R0
WINDOW 0 -62 99 Left 2
WINDOW 3 -41 12 Left 2
WINDOW 123 0 0 Left 2
WINDOW 39 0 0 Left 2
SYMATTR InstName V-15
SYMATTR Value 15
SYMBOL voltage 1040 -48 R0
SYMATTR InstName V+50
SYMATTR Value 50
SYMBOL voltage 960 16 R0
WINDOW 0 -72 11 Left 2
SYMATTR InstName V+15
SYMATTR Value 15
SYMBOL voltage 1040 224 R0
SYMATTR InstName V-50
SYMATTR Value 50
SYMBOL current 400 208 R180
WINDOW 3 -156 8 Left 2
WINDOW 123 -93 44 Left 2
WINDOW 39 0 0 Left 2
SYMATTR Value SINE(0 1 1k)
SYMATTR Value2 AC 1
SYMATTR InstName I1
SYMBOL ss-ampli-g-2doInfAvance 192 128 R0
SYMATTR InstName X1
TEXT 760 384 Left 2 !;tran 0 12m 1m
TEXT 80 408 Left 2 !.ac oct 20 0.1 1meg
